27
C11N3H12O
C       -0.793098220      0.294944618     -9.109841510
C       -1.632147512     -0.592936685     -8.414759579
C        0.178987406      1.018546941     -8.402572484
H       -2.383106042     -1.173925066     -8.960142047
H        0.864291401      1.683205979     -8.939001663
C       -1.513097023     -0.740786838     -7.031741582
C        0.297600812      0.875779968     -7.014858211
H       -2.144777404     -1.438071955     -6.474352464
H        1.104566417      1.397195579     -6.491564031
C       -0.564151621      0.011006327     -6.298876185
H       -0.884289334      0.408001822    -10.194424724
C       -0.506614358     -0.219886994     -4.830146185
O       -0.921522707     -1.310000920     -4.330333006
C       -0.030614430      0.854205775     -3.969604438
C        0.143120862      2.223928750     -4.200082916
H        0.004997353      2.803949636     -5.107064312
N        0.471596201      2.794172316     -3.019685598
N        0.540393064      1.923056831     -1.990824141
N        0.217104819      0.730422146     -2.589388604
C        0.252128178     -0.471340292     -1.777908236
H       -0.274258071     -0.281259189     -0.829404911
H       -0.252703207     -1.254176810     -2.362679379
H        1.294974213     -0.762313821     -1.559007394
C        0.707842500      4.200850188     -2.738049198
H       -0.059873280      4.577395099     -2.044844431
H        1.699694700      4.320157592     -2.276930842
H        0.666867710      4.761487866     -3.680793674
