50
C24N2H21O3
C       -2.476646568      0.370397082     -8.013077462
C       -1.795720490     -0.820918835     -7.712966510
C       -2.358668801      1.477018915     -7.159363273
H       -1.890028100     -1.687645619     -8.374756766
H       -2.901514015      2.400968614     -7.382283597
C       -1.001551970     -0.901139959     -6.567033826
C       -1.548659179      1.404099178     -6.019791133
H       -0.477610096     -1.821670787     -6.294742656
H       -1.461564099      2.265252975     -5.352394697
C       -0.856631813      0.214694081     -5.716202433
H       -3.101637187      0.434061706     -8.909617196
C       -0.036780698      0.029600510     -4.476730599
O        0.213724677     -1.114714175     -4.056580119
C        0.480075150      1.212142174     -3.745432838
C        0.776113559      2.541136847     -4.190500084
N        1.499644638      3.230799665     -3.155482171
N        1.318641401      2.426631482     -1.981153031
C        0.853203449      1.186695263     -2.400276230
O        0.801928137      0.211155944     -1.463641721
O        0.984777116      2.984519575     -5.475090937
C        1.128535107      4.637242538     -2.940421524
H        0.104121389      4.741798989     -2.534216296
H        1.851004754      5.121231731     -2.264801237
H        1.185021542      5.131486006     -3.920716169
C        2.348599463      2.548137592     -0.953091725
H        2.306249622      3.549227808     -0.498535620
H        2.133901419      1.798118190     -0.179884664
H        3.358402668      2.376916037     -1.370027661
C       -0.431338189     -0.417264884     -1.219883072
C       -1.629264502      0.307358388     -1.205862741
C       -0.392166244     -1.781665370     -0.919202647
C       -2.816903157     -0.362743707     -0.885112439
C       -1.587673874     -2.433668290     -0.592310028
C       -2.801082235     -1.730829612     -0.576125573
H       -1.626661173      1.374965668     -1.441832813
H        0.562418089     -2.310059524     -0.963950394
H       -3.759343530      0.193086827     -0.871700706
H       -1.569970919     -3.503167884     -0.362448590
H       -3.732197811     -2.247860455     -0.327684094
C        2.123083025      2.571393605     -6.183284895
C        3.178891184      1.846790098     -5.612637034
C        2.152972711      2.944339661     -7.535133002
C        4.273192159      1.496518950     -6.417076164
C        3.253559627      2.588492697     -8.322266750
C        4.320341509      1.862895442     -7.769000656
H        3.145997226      1.562689683     -4.559326653
H        1.306417475      3.500038843     -7.947227655
H        5.097353032      0.928681845     -5.973804131
H        3.273178860      2.876193156     -9.378116934
H        5.177921191      1.583286434     -8.387071110
