38
C22H15O
C        2.352142405     -3.640574091     -6.338683084
C        3.077341741     -2.507404410     -6.741962543
C        1.829217258     -3.704417021     -5.038047079
H        3.478494118     -2.449036660     -7.758944186
H        1.239480977     -4.572609859     -4.726473406
C        3.286969895     -1.451886233     -5.849902233
C        2.044179083     -2.650352197     -4.141167455
H        3.835547270     -0.552080729     -6.142677797
H        1.599984032     -2.686538248     -3.142263129
C        2.789299844     -1.517933433     -4.532100227
H        2.184978750     -4.465006857     -7.038832264
C        3.036817031     -0.357337368     -3.627922197
O        3.355669207      0.779625932     -4.092129537
C        2.935369844     -0.536231215     -2.212234947
C        3.040931152      0.149499103     -0.976940070
C        2.879710596     -1.214640912     -0.947830036
C        3.256821956      1.428974130     -0.367381866
C        3.455947059      2.539926389     -1.226819235
C        3.289503748      1.606015150      1.037056903
C        3.679848606      3.804624886     -0.677879098
C        3.512118693      2.875741830      1.571101886
C        3.705762792      3.975489070      0.716093317
H        3.441520259      2.362778457     -2.309741448
H        3.147523681      0.744054204      1.695589275
H        3.837243284      4.663039130     -1.337553902
H        3.537921242      3.015136524      2.655890182
H        3.880032667      4.968764866      1.141207387
C        2.804619899     -2.430605735     -0.191308047
C        2.984756868     -3.685226553     -0.828811368
C        2.566046711     -2.397208459      1.207112895
C        2.929078597     -4.864963130     -0.083215665
C        2.503835008     -3.581937772      1.939922941
C        2.685934677     -4.820244352      1.298859714
H        3.185298207     -3.714740288     -1.903111299
H        2.410433990     -1.433018967      1.700219140
H        3.077626236     -5.827362123     -0.581967739
H        2.311600092     -3.545741802      3.016352716
H        2.639645417     -5.747390411      1.877644190
