58
C22N2H33O
C        2.573100757      4.668222542     -6.360576342
C        3.319758607      5.558510266     -5.569166277
C        1.785898481      3.686689717     -5.737115341
H        3.924021470      6.336926900     -6.047501563
H        1.170177085      3.012763658     -6.342670930
C        3.290991872      5.462292277     -4.175749521
C        1.760995762      3.584963944     -4.340572979
H        3.842971107      6.161661511     -3.541159097
H        1.101983817      2.857376181     -3.855640045
C        2.530868989      4.455412473     -3.535654486
H        2.589081919      4.751844138     -7.451796777
C        2.486894006      4.435419520     -2.052475852
O        2.729991766      5.502213943     -1.384383624
C        2.135442370      3.224069895     -1.370918831
C        1.790496956      2.673188035     -0.105393592
C        2.079167419      1.812936111     -1.161166534
N        1.407052121      2.903824504      1.159391697
N        2.222105105      0.543696014     -1.617714693
C        1.149946428      4.295116289      1.641611498
H        0.682239084      4.156669748      2.632487612
C        0.152120362      5.032819636      0.737488796
C        2.454781018      5.088327154      1.804556665
H        3.169999392      4.561520518      2.456480737
H        2.901506974      5.263057943      0.809279004
H        2.236608641      6.070279222      2.257441418
H        0.624803542      5.291806575     -0.222783479
H       -0.151367857      5.974992178      1.222873401
H       -0.753067956      4.429886475      0.559283536
C        1.262133501      1.775363047      2.107320509
H        1.605758569      0.888644022      1.552697016
C       -0.209200132      1.555665785      2.495664530
C        2.175297387      1.926444885      3.334553767
H        3.227030431      2.047311269      3.030671730
H        1.893375200      2.794187800      3.952856784
H        2.098616182      1.028704486      3.969744685
H       -0.613004142      2.417157718      3.052907170
H       -0.308350198      0.667555599      3.141215626
H       -0.833138735      1.406817653      1.599823067
C        1.694229177     -0.555560712     -0.772757336
H        0.927325638     -0.078791441     -0.138541656
C        2.773977830     -1.166928183      0.138858435
C        0.980464084     -1.627050779     -1.610469859
H        0.189905180     -1.179356047     -2.232560954
H        1.680037996     -2.166273559     -2.270285769
H        0.516879362     -2.372349255     -0.943598409
H        3.542192184     -1.700125725     -0.445538597
H        2.325471908     -1.896410228      0.833441730
H        3.281232236     -0.389160315      0.732563373
C        3.220156008      0.196226643     -2.674652921
H        3.547584105     -0.827534209     -2.415403885
C        4.455828165      1.103425653     -2.617334600
C        2.614708969      0.145799461     -4.086187508
H        1.701965410     -0.468730457     -4.114988358
H        2.372685631      1.156000285     -4.447796335
H        3.345391616     -0.293790477     -4.786197902
H        4.208555403      2.140780888     -2.891098939
H        5.212011829      0.739551283     -3.331423942
H        4.904327987      1.106061614     -1.610991300
