48
C21N2H23O2
C        7.386248917      1.980787453      1.915093345
C        7.929142671      2.145898628      0.630080201
C        6.149265785      1.333644758      2.061272180
H        8.896120745      2.644563676      0.504403177
H        5.722616212      1.187428961      3.058992328
C        7.242263143      1.674095702     -0.490699139
C        5.452591403      0.870758613      0.939936132
H        7.655398069      1.770632593     -1.498464112
H        4.496713332      0.358720567      1.074943481
C        5.984037776      1.038851953     -0.360330202
H        7.923407144      2.349960582      2.794461405
C        5.365820346      0.511418126     -1.610875137
O        6.105945303      0.351328268     -2.641348070
C        3.960268944      0.147673777     -1.628818862
C        2.828278596      0.593396086     -0.909393070
O        1.770317440     -0.315538803     -1.200953942
C        2.184503385     -1.143944253     -2.162358620
N        3.447356784     -0.873808080     -2.521975053
C        2.438487250      1.742588205     -0.142931836
C        1.195581478      1.755850379      0.555496499
C        3.256711987      2.905738958     -0.065491096
C        0.800647627      2.873040400      1.290200199
C        2.844550087      4.015136456      0.672792236
C        1.620017305      4.013319155      1.361387592
H        0.548276792      0.875656405      0.516739296
H        4.206163886      2.932648972     -0.602311734
H       -0.157621830      2.854010999      1.819780320
H        3.490950110      4.897874688      0.708789692
H        1.309203272      4.884842969      1.944648307
C        4.206714351     -1.388801986     -3.706204058
H        4.881719245     -0.539476850     -3.911294942
C        3.312013151     -1.649096769     -4.920427330
C        5.130529809     -2.553688508     -3.329405408
H        5.812083881     -2.242959130     -2.524844473
H        4.593346823     -3.465504552     -3.018966701
H        5.745646177     -2.812992869     -4.206057884
H        2.691499054     -2.554361860     -4.840407087
H        3.970462222     -1.777718055     -5.794508118
H        2.650871794     -0.792116437     -5.123642976
N        1.295353658     -2.063812414     -2.644395954
C        1.624218687     -3.493868303     -2.613731194
H        1.122935293     -4.004510616     -3.451970096
H        1.287753339     -3.956359946     -1.664929963
H        2.705491720     -3.641767191     -2.708691712
C       -0.123228486     -1.784928109     -2.394324466
H       -0.719463419     -2.376031753     -3.107326502
H       -0.428989289     -2.056311286     -1.365760644
H       -0.331155138     -0.718491485     -2.553170370
