82
C36N2H43O
C       -1.550409039      4.736304507     -4.599282997
H       -1.986121610      4.746740830     -3.592364269
C       -1.857752434      5.804092743     -5.405033411
N       -2.623193385      8.282110380     -7.146094307
C       -3.247026669      9.451345428     -7.576413765
C       -4.028498403      9.901224567     -6.555196755
N       -3.897158570      9.014228265     -5.493728537
C       -1.705388289      7.562964661     -7.993100334
C       -0.326132810      7.874005571     -7.906788965
C       -2.223034509      6.610523194     -8.905683728
C        0.546003211      7.194771178     -8.776359132
C       -2.722939441      6.878988090     -4.945757626
O       -3.245715074      6.907664581     -3.781248496
C       -3.032913016      7.984314288     -5.843742469
C       -1.304784204      5.967209610     -9.755265262
C        0.063006628      6.255902427     -9.694371383
H        1.619216135      7.402751995     -8.728100154
H       -1.668960081      5.219581051    -10.467224870
C       -4.595703830      9.237485762     -4.246307751
C       -5.920369456      8.762020012     -4.121426862
C       -3.976351929     10.050467554     -3.270360413
C       -6.630081424      9.126096663     -2.964117000
C       -4.731420434     10.384125439     -2.133993857
C       -6.047795062      9.935624356     -1.982970321
H       -7.652408066      8.759324592     -2.826279389
H       -4.275651106     10.997109570     -1.349785817
H       -3.049969750      9.857211268     -8.563838181
H       -4.657101440     10.781822314     -6.469808038
H        0.758960061      5.737487301    -10.361202681
H       -6.618736421     10.208340847     -1.089843630
C        0.220863472      8.866605099     -6.885501541
H       -0.637768117      9.331488362     -6.371622161
C        1.022351810      9.997748992     -7.557814809
C        1.063532527      8.143409054     -5.813148559
H        0.479545667      7.358078641     -5.307450052
H        1.955412957      7.671756749     -6.259667076
H        1.408447709      8.861867279     -5.050443253
H        1.924256524      9.613142993     -8.063087451
H        1.354628187     10.729157080     -6.802616498
H        0.418029158     10.531664766     -8.309188496
C       -2.513622214     10.466396610     -3.379830867
H       -2.171157984     10.231437400     -4.402776365
C       -1.659901067      9.622461740     -2.408191741
C       -2.301413301     11.975452053     -3.162975767
H       -2.892277491     12.575505222     -3.874583305
H       -2.586983244     12.286480481     -2.143971280
H       -1.237814348     12.234682166     -3.297631896
H       -1.912914815      9.858361407     -1.360056129
H       -0.586075220      9.833303463     -2.552386551
H       -1.842792216      8.548825598     -2.572396682
C       -6.533027955      7.804129200     -5.137321732
H       -5.863826681      7.766906548     -6.014780721
C       -7.915187032      8.264867872     -5.634421863
C       -6.583909115      6.380294216     -4.541111714
H       -5.586718965      6.079815745     -4.182323563
H       -7.283396965      6.338374858     -3.688200010
H       -6.929675049      5.655187449     -5.297847546
H       -8.653679830      8.298075458     -4.815595640
H       -8.300897716      7.564853939     -6.394544361
H       -7.870391520      9.269628484     -6.086331952
C       -3.702041928      6.237854973     -8.947131380
H       -4.235739276      6.901731092     -8.247236848
C       -3.918204829      4.788473874     -8.461039840
C       -4.310391721      6.456661810    -10.345878745
H       -4.180747476      7.497026222    -10.686104903
H       -3.847284949      5.796438833    -11.098573454
H       -5.390067963      6.233477697    -10.330739756
H       -3.415695984      4.065455713     -9.125854401
H       -4.994212512      4.545730646     -8.451951724
H       -3.525191715      4.644771055     -7.441924628
H       -1.457303286      5.848146131     -6.418672862
C       -0.713933170      3.600675856     -4.951660092
C       -0.508648044      2.573350816     -3.994105555
C       -0.081744356      3.452658035     -6.216169056
C        0.281409260      1.456670421     -4.278758729
C        0.706624545      2.335556189     -6.496775546
C        0.895796329      1.328436603     -5.534513848
H       -0.987301259      2.669921360     -3.013256665
H       -0.210609774      4.222679868     -6.983487109
H        0.419617120      0.681354426     -3.517891681
H        1.183300608      2.244529455     -7.478693168
H        1.514680752      0.455136640     -5.761825033
