80
C32N2H45O
C       -2.871738030      7.890342520     -5.875463064
N       -2.211631989      8.405261125     -7.014259777
C       -2.673211004      9.712809042     -7.252238333
C       -3.620924255     10.004809238     -6.324950220
N       -3.785949273      8.899448439     -5.501876765
C       -1.575169374      7.686692001     -8.091154348
C       -0.254017903      8.070830586     -8.454419665
C       -2.304973655      6.717563198     -8.837849662
C        0.336330224      7.436576455     -9.562404615
C       -1.649346801      6.102874822     -9.918969102
C       -0.343835784      6.452667186    -10.283518322
C       -2.789222867      6.654153932     -5.127938279
O       -3.813804834      6.344414436     -4.443151902
H        1.352313363      7.717624341     -9.857161193
H       -2.184109035      5.348978420    -10.502816394
C       -4.581621536      8.981403593     -4.303177700
C       -5.936390042      8.576257791     -4.352860184
C       -4.008804570      9.579334448     -3.156426294
C       -6.719381483      8.784135025     -3.206720973
C       -4.838548165      9.765640977     -2.035595590
C       -6.180043486      9.375010998     -2.057973696
H       -7.769780853      8.474858600     -3.213955140
H       -4.422671336     10.223765971     -1.131960545
H       -2.320742495     10.280549800     -8.106471701
H       -4.207249193     10.905974750     -6.170306772
H        0.136353181      5.964395225    -11.136868981
H       -6.809097438      9.529298071     -1.175561501
C        0.526619245      9.153945750     -7.706719634
H       -0.030562358      9.391685301     -6.784400094
C        0.633743655     10.444298894     -8.549130002
C        1.938346717      8.691877615     -7.290981736
H        1.907621681      7.765893807     -6.697047773
H        2.583526946      8.512314610     -8.167597347
H        2.424953818      9.472425000     -6.682358595
H        1.200649237     10.258614112     -9.477298304
H        1.159931292     11.232400589     -7.984377701
H       -0.352125101     10.840697630     -8.841132058
C       -2.543055052     10.002363315     -3.100388745
H       -2.075982392      9.748666710     -4.066954755
C       -1.784728976      9.222341031     -2.008688383
C       -2.397338342     11.524285728     -2.899950704
H       -2.898845894     12.086313251     -3.704995314
H       -2.838062564     11.847813592     -1.941525530
H       -1.332894335     11.814376703     -2.892299460
H       -2.174000079      9.457546992     -1.004020770
H       -0.711867780      9.480363119     -2.020651866
H       -1.884644708      8.136284399     -2.161581105
C       -6.537272882      7.921034400     -5.590604480
H       -5.745916781      7.875934407     -6.357427743
C       -7.698454783      8.755002116     -6.167192012
C       -6.971627432      6.472098070     -5.292918091
H       -6.115082686      5.898346542     -4.908466262
H       -7.782787762      6.442332443     -4.544880411
H       -7.348100727      5.988741817     -6.211580061
H       -8.537414890      8.827656825     -5.453862585
H       -8.087667735      8.289890149     -7.089089598
H       -7.379094198      9.781801272     -6.412033189
C       -3.777619461      6.411968739     -8.562812284
H       -3.951888987      6.518922157     -7.478838041
C       -4.198262040      4.980954969     -8.939615890
C       -4.674714572      7.442272619     -9.286216174
H       -4.438391152      8.474401768     -8.982537248
H       -4.547517549      7.370668244    -10.380425008
H       -5.737097599      7.255445249     -9.053413280
H       -4.202006107      4.819529109    -10.031600864
H       -5.224420757      4.794017134     -8.583150258
H       -3.538489375      4.227192285     -8.481102045
C       -1.527695956      5.747440764     -5.018229963
C       -1.626594457      4.577035634     -6.025706055
C       -1.540640130      5.151854070     -3.591255996
H       -1.391439149      5.936438148     -2.829996428
H       -2.503174720      4.664774463     -3.383132806
H       -0.724064524      4.416696430     -3.488482771
H       -2.586636665      4.049149449     -5.900537819
H       -0.811892890      3.851415753     -5.852591348
H       -1.549793209      4.923613714     -7.068452886
C       -0.206769470      6.509740772     -5.213029686
H       -0.146485783      7.383645763     -4.541303445
H        0.646202926      5.847775413     -4.980280330
H       -0.079892900      6.853825307     -6.247973282
