82
C35N2H43O2
C        0.478718402      4.020277438     -4.936988325
C       -0.837985017      3.596989652     -4.658194205
C        0.723880820      5.374665839     -5.229969534
H       -1.004203450      2.544382045     -4.411589949
H        1.740403390      5.733530073     -5.409757258
C       -1.887991999      4.508592550     -4.697951538
C       -0.346307090      6.278486513     -5.273338842
H       -2.909737902      4.201095124     -4.457136262
H       -0.139656514      7.335618012     -5.461848310
C       -1.671952911      5.867027264     -5.039596990
N       -2.282521300      8.356792801     -7.005078990
C       -2.843759343      6.779774067     -5.002245319
O       -3.832829911      6.516101984     -4.236881535
C       -2.897270461      7.989631908     -5.793288384
C       -2.759877552      9.614631754     -7.394966794
C       -3.658768033     10.032610374     -6.464245145
N       -3.764241465      9.046081533     -5.491252057
C       -1.552143160      7.527171473     -7.929209023
C       -0.222343209      7.906126785     -8.258044377
C       -2.198240897      6.427914643     -8.552726173
C        0.453074911      7.149235657     -9.230764737
C       -1.462568873      5.696581947     -9.500975903
C       -0.153135770      6.048875936     -9.841730216
H        1.475718604      7.425063692     -9.507383163
H       -1.937799594      4.845010681     -9.997580176
C       -4.622847977      9.195271408     -4.342467813
C       -6.013568268      9.001993012     -4.524551011
C       -4.065511846      9.618052021     -3.114568567
C       -6.852825402      9.256702303     -3.427593008
C       -4.951458262      9.853092706     -2.048678664
C       -6.330448599      9.683375402     -2.201939773
H       -7.931648510      9.102812291     -3.531368557
H       -4.549641567     10.169646182     -1.080622121
H       -2.437223911     10.069323046     -8.325523523
H       -4.240210512     10.947143204     -6.397203674
H        0.393008970      5.467907817    -10.591392700
H       -7.001688734      9.873233786     -1.358450980
C        0.477568341      9.106199846     -7.618419607
H       -0.140210802      9.444486401     -6.768142382
C        0.594428419     10.280302075     -8.614526421
C        1.874943323      8.755693718     -7.067790893
H        1.838232644      7.908894350     -6.365747709
H        2.576483733      8.490597761     -7.876511942
H        2.301016389      9.622763810     -6.535819815
H        1.216785430      9.995948810     -9.479941263
H        1.064657922     11.153682333     -8.132063619
H       -0.386218056     10.596796137     -9.004606374
C       -2.561763987      9.756402759     -2.905605547
H       -2.067666192      9.594811787     -3.878904740
C       -2.056499340      8.657832221     -1.945511980
C       -2.165728051     11.161479336     -2.414687578
H       -2.498470824     11.944106059     -3.116151463
H       -2.605133403     11.386092406     -1.428013238
H       -1.069969580     11.236452402     -2.311942101
H       -2.464756486      8.804635240     -0.930548065
H       -0.955801704      8.682563403     -1.872350115
H       -2.366496456      7.661129948     -2.295452627
C       -6.585714845      8.433743614     -5.820191953
H       -5.797439625      8.485099317     -6.590379335
C       -7.790921151      9.232142217     -6.348307732
C       -6.929654087      6.941410681     -5.620973113
H       -6.051551690      6.399052922     -5.234214795
H       -7.753456446      6.822135164     -4.895838351
H       -7.251028473      6.487186445     -6.574998950
H       -8.648753702      9.187984580     -5.656111224
H       -8.129268532      8.817501023     -7.312833295
H       -7.539490712     10.294671524     -6.502986573
C       -3.661751392      6.069198698     -8.306061269
H       -4.011003655      6.617878985     -7.417607050
C       -3.861092408      4.570182875     -8.011486308
C       -4.528582989      6.522185428     -9.501181341
H       -4.430911333      7.605386829     -9.682637217
H       -4.236258915      5.997418214    -10.427270153
H       -5.592529916      6.302062802     -9.308550442
H       -3.631698480      3.943528279     -8.890595906
H       -4.911676896      4.378581184     -7.736844644
H       -3.222054409      4.239544214     -7.177989992
O        1.439812314      3.042172702     -4.880495953
C        2.776900336      3.424272291     -5.181776110
H        3.166259621      4.166823257     -4.459214773
H        3.377368077      2.505745739     -5.112386067
H        2.864909456      3.840312059     -6.203569056
