80
C34N3H40O3
C        0.594715600      4.267444004     -4.713022703
C       -0.685211440      3.711554202     -4.529825919
C        0.750476212      5.613601600     -5.091688902
H       -0.763105680      2.666640912     -4.222273773
H        1.763491035      6.011035919     -5.186321371
C       -1.806526513      4.504973322     -4.739307804
C       -0.378640142      6.396471363     -5.309424490
H       -2.814848687      4.113809172     -4.579113261
H       -0.256205496      7.454064063     -5.558774806
C       -1.683765989      5.860020001     -5.156292189
N       -2.374617677      8.380352167     -7.142755598
C       -2.919002826      6.643661229     -5.275641392
O       -4.015812649      6.253833441     -4.760909861
C       -2.945602901      7.947748316     -5.953043592
C       -2.855660308      9.655034862     -7.446695211
C       -3.717743632     10.019764392     -6.456249130
N       -3.781924731      8.972176527     -5.548175144
C       -1.632973403      7.591909649     -8.100337172
C       -0.300164533      7.978298746     -8.399694057
C       -2.287895007      6.521658534     -8.761018006
C        0.379598150      7.247419496     -9.390272621
C       -1.546758936      5.818092754     -9.726416149
C       -0.231447606      6.172070217    -10.040354342
H        1.407774369      7.520387870     -9.645273814
H       -2.020839069      4.983271754    -10.251771253
C       -4.550129782      9.040792539     -4.326511554
C       -5.951215818      8.866144240     -4.410022910
C       -3.884758947      9.367491305     -3.122477217
C       -6.690893545      9.026909610     -3.226753910
C       -4.677363267      9.511348247     -1.969552817
C       -6.064200022      9.348046678     -2.018274895
H       -7.775977339      8.885854948     -3.252503206
H       -4.194188135      9.756428463     -1.018414236
H       -2.559154893     10.162340140     -8.358522828
H       -4.292613101     10.928309551     -6.305505816
H        0.319333864      5.608241843    -10.799216128
H       -6.660301087      9.465616360     -1.108034450
C        0.397387813      9.153903628     -7.714272681
H       -0.208628458      9.446837006     -6.838209687
C        0.485222107     10.376073841     -8.654436783
C        1.805853979      8.789588010     -7.203158378
H        1.792475483      7.886257948     -6.575593151
H        2.505791763      8.606281707     -8.035152498
H        2.218538844      9.619778190     -6.606446456
H        1.091340064     10.137954543     -9.544694724
H        0.961054527     11.227009370     -8.138721749
H       -0.504637686     10.705846673     -9.009462118
C       -2.371941282      9.542304056     -3.026715650
H       -1.944156395      9.413003077     -4.035788903
C       -1.751949306      8.457120453     -2.121737801
C       -1.990802986     10.956661056     -2.545904778
H       -2.404447873     11.734442189     -3.208501092
H       -2.364235280     11.151458907     -1.526471024
H       -0.894196008     11.071809107     -2.523754792
H       -2.102716457      8.561729333     -1.081082593
H       -0.652360102      8.541311500     -2.115358114
H       -2.018223185      7.447144402     -2.469275884
C       -6.653139487      8.456898459     -5.701404122
H       -5.907650740      8.470008625     -6.514923467
C       -7.773673498      9.439738315     -6.091152016
C       -7.174630370      7.009073571     -5.589121168
H       -6.345187673      6.331527626     -5.334686934
H       -7.948124666      6.926310646     -4.806609795
H       -7.626358051      6.689047132     -6.544064369
H       -8.582322946      9.454759787     -5.340989562
H       -8.224089653      9.143276011     -7.053156464
H       -7.395816153     10.470760415     -6.193941797
C       -3.749895776      6.146295150     -8.526407006
H       -4.142167879      6.744939927     -7.689118842
C       -3.910082460      4.665563800     -8.129237095
C       -4.601369322      6.484954577     -9.768675260
H       -4.524334502      7.552386576    -10.033439577
H       -4.283528723      5.896602605    -10.646177070
H       -5.662938901      6.255158494     -9.576546492
H       -3.614278134      3.990725578     -8.950559648
H       -4.964138819      4.453772522     -7.885470488
H       -3.299724620      4.418325602     -7.247581793
N        1.775455604      3.447893277     -4.489010729
O        1.604091801      2.261030815     -4.135979527
O        2.894777722      3.978588662     -4.664859738
