41
C21N3H16O
C        3.490112576     14.399591578     -6.212596082
C        2.211833260     14.760544369     -5.754897745
C        3.803612402     13.041703649     -6.385616936
H        1.954401089     15.817589630     -5.629717038
H        4.788696134     12.751813777     -6.765905789
C        1.264736358     13.776651314     -5.462150023
C        2.858650147     12.054236663     -6.090285394
H        0.256880503     14.034111565     -5.123901404
H        3.106776623     11.003377994     -6.261003721
C        1.577455883     12.404384380     -5.601995787
H        4.231697728     15.170155011     -6.445686373
C        0.498058974     11.426816914     -5.311085999
C        0.824545844     10.030803414     -5.041680537
O       -0.722395099     11.778224918     -5.341172499
C        0.142401475      8.804601387     -5.207664355
N        1.050514162      7.823175924     -4.901285903
N        2.272983429      8.282658089     -4.563547416
N        2.120427637      9.641998894     -4.640843714
C        3.257435559     10.449620461     -4.307441439
C        4.334961921     10.507891307     -5.221865918
C        3.278866703     11.100536324     -3.052895120
C        5.463672941     11.251802950     -4.842426814
C        4.430842630     11.837251660     -2.727693913
C        5.514834504     11.908223157     -3.607783791
H        6.310556594     11.329322989     -5.531465046
H        4.476434896     12.362594806     -1.768082513
H        6.402617545     12.486966188     -3.333959902
C        0.897431096      6.391175144     -4.976379946
C        0.969603513      5.767710719     -6.241002498
C        0.723191477      5.684060220     -3.763143590
C        0.853671544      4.365946106     -6.263724489
C        0.622288929      4.285727672     -3.848617798
C        0.685001660      3.633708009     -5.085400425
H        0.904308410      3.842492251     -7.223105439
H        0.491642756      3.699692833     -2.934226783
H        0.603076589      2.543249195     -5.129624752
H       -0.884377772      8.667929248     -5.513352275
H        4.291241590     10.000310025     -6.174152521
H        2.443538496     11.034434921     -2.371530761
H        0.670168558      6.196592887     -2.813986683
H        1.107145666      6.339228746     -7.147009839
