62
C28N2H31O
C        0.109490904     -0.309469593     -8.981715745
C       -1.071987776     -0.806200286     -8.407254481
C        1.065323872      0.314213109     -8.165194724
H       -1.817960425     -1.304143030     -9.035648400
H        1.999740744      0.683816863     -8.600259661
C       -1.297906299     -0.672676971     -7.035075411
C        0.836734665      0.455413555     -6.792025249
H       -2.196535430     -1.077127172     -6.560272578
H        1.600841911      0.916039927     -6.159493616
C       -0.356378062     -0.021389888     -6.206853731
H        0.289480687     -0.418336867    -10.055903696
C       -0.641019135      0.012949456     -4.746112629
O       -1.437371107     -0.833807561     -4.225862173
C       -0.022298861      0.990583429     -3.871463402
N        0.389250670      2.292079283     -4.153103868
C        0.654779756      3.006067768     -2.884136621
C        0.825650350      1.865986534     -1.870711794
N        0.118665605      0.749585167     -2.516229959
C       -0.096817778      3.079041072     -5.255274645
C        0.862776221      3.763429159     -6.042390796
C       -1.484261686      3.230890282     -5.508313484
C        0.419013453      4.550470650     -7.116613871
C       -1.871792967      4.027399269     -6.598702560
C       -0.943462574      4.682273146     -7.425222358
H        1.163387873      5.067207941     -7.733678397
H       -2.942859010      4.147037781     -6.800797884
C        0.272988429     -0.570343053     -1.956612379
C       -0.744333691     -1.045892213     -1.099116455
C        1.426550336     -1.339241578     -2.224332749
C       -0.570715651     -2.292530661     -0.483389199
C        1.553323221     -2.584879010     -1.582629597
C        0.574016175     -3.078307119     -0.708261309
H       -1.362688701     -2.670641262      0.173768042
H        2.444736532     -3.190417225     -1.784971560
H       -0.208596485      3.652353900     -2.632867238
H        0.387090498      2.097651634     -0.885462680
C        2.478066802     -0.899751937     -3.217363596
H        3.391684672     -1.504943826     -3.108933671
H        2.114545026     -1.022133092     -4.253090783
H        2.761374951      0.159445191     -3.103646377
C       -2.021865736     -0.263002568     -0.937063898
H       -2.500792691     -0.173266268     -1.927702574
H       -2.713879684     -0.769522605     -0.247049879
H       -1.847757080      0.759434315     -0.559923709
C        0.723910396     -4.428530718     -0.046290016
H       -0.058883875     -5.128052520     -0.388047871
H        1.700424755     -4.884042691     -0.273029910
H        0.630581836     -4.354777041      1.050840953
C        2.339633178      3.677972552     -5.736640730
H        2.655270641      4.477861844     -5.040691112
H        2.602279901      2.717855178     -5.265394166
H        2.939082545      3.795868845     -6.653076695
C       -2.548647928      2.591636011     -4.646676628
H       -3.493988717      3.150029206     -4.737191572
H       -2.743487540      1.546445140     -4.939865508
H       -2.268524819      2.566806034     -3.581135321
C       -1.396917239      5.486815247     -8.620805482
H       -1.396671800      4.868291614     -9.536505384
H       -2.421427912      5.868976170     -8.486670058
H       -0.732047901      6.345414247     -8.808999207
H        1.893184244      1.613733871     -1.713864919
H        1.548659722      3.646194169     -2.965070764
